<?xml version="1.0" encoding="UTF-8"?>
<net xmlns:xsi="http://www.w3.org/2001/XMLSchema-instance" version="1.3" xsi:noNamespaceSchemaLocation="http://sumo.dlr.de/xsd/net_file.xsd">
    <location netOffset="0.00,0.00" convBoundary="0.00,0.00,500.00,500.00" origBoundary="0.00,0.00,500.00,500.00" projParameter="!"/>

    <!-- Define the edges (roads) -->
    <edge id="1to2" from="1" to="2" priority="1" numLanes="1" speed="13.89">
        <lane id="1to2_0" index="0" speed="13.89" length="100.00" shape="0.00,0.00 100.00,0.00"/>
    </edge>
    <edge id="2to3" from="2" to="3" priority="1" numLanes="1" speed="13.89">
        <lane id="2to3_0" index="0" speed="13.89" length="100.00" shape="100.00,0.00 200.00,0.00"/>
    </edge>
    <edge id="3to4" from="3" to="4" priority="1" numLanes="1" speed="13.89">
        <lane id="3to4_0" index="0" speed="13.89" length="100.00" shape="200.00,0.00 300.00,0.00"/>
    </edge>

    <!-- Define the nodes (intersections) -->
    <node id="1" x="0.00" y="0.00" type="priority"/>
    <node id="2" x="100.00" y="0.00" type="priority"/>
    <node id="3" x="200.00" y="0.00" type="priority"/>
    <node id="4" x="300.00" y="0.00" type="priority"/>
</net>