<?xml version="1.0" encoding="UTF-8"?>
<routes xmlns:xsi="http://www.w3.org/2001/XMLSchema-instance" xsi:noNamespaceSchemaLocation="http://sumo.dlr.de/xsd/routes_file.xsd">

    <!-- Vehicle types -->
    <vType id="car" accel="2.6" decel="4.5" length="5.0" maxSpeed="20" color="1,0,0"/>

    <!-- Define routes -->
    <route id="route1" edges="1to2 2to3 3to4"/>

    <!-- Define vehicles -->
    <vehicle id="veh0" type="car" route="route1" depart="0" color="0,0,1"/>
    <vehicle id="veh1" type="car" route="route1" depart="5" color="0,1,0"/>

    <!-- Vehicle flow (for continuous vehicle generation) -->
    <flow id="flow1" type="car" begin="0" end="100" number="10" route="route1"/>

</routes>